functions/OneTimeScripts/validationAgainstOpenDSS_MATLAB/ieee123_1ph_created/results/pv010_batt000/powers16.csv
Element, Terminal, P(kW), Q(kvar),  P_Normal, Q_Normal, P_Emergency, Q_Emergency
"Line.L115"             ,   1,       714.2,       301.7,         0.0,         0.0,         0.0,         0.0
"Line.L115"             ,   2,      -711.8,      -296.8
"Line.L1"               ,   1,         5.5,         2.8,         0.0,         0.0,         0.0,         0.0
"Line.L1"               ,   2,        -5.5,        -2.8
"Line.L2"               ,   1,        27.6,        13.8,         0.0,         0.0,         0.0,         0.0
"Line.L2"               ,   2,       -27.5,       -13.8
"Line.L3"               ,   1,       667.7,       274.7,         0.0,         0.0,         0.0,         0.0
"Line.L3"               ,   2,      -666.1,      -271.5
"Line.L4"               ,   1,        11.0,         5.5,         0.0,         0.0,         0.0,         0.0
"Line.L4"               ,   2,       -11.0,        -5.5
"Line.L5"               ,   1,        16.5,         8.3,         0.0,         0.0,         0.0,         0.0
"Line.L5"               ,   2,       -16.5,        -8.3
"Line.L6"               ,   1,        11.0,         5.5,         0.0,         0.0,         0.0,         0.0
"Line.L6"               ,   2,       -11.0,        -5.5
"Line.L7"               ,   1,       660.6,       268.8,         0.0,         0.0,         0.0,         0.0
"Line.L7"               ,   2,      -659.6,      -266.7
"Line.L8"               ,   1,         5.5,         2.8,         0.0,         0.0,         0.0,         0.0
"Line.L8"               ,   2,        -5.5,        -2.8
"Line.L9"               ,   1,        14.2,        13.8,         0.0,         0.0,         0.0,         0.0
"Line.L9"               ,   2,       -14.2,       -13.8
"Line.L10"              ,   1,       639.9,       250.1,         0.0,         0.0,         0.0,         0.0
"Line.L10"              ,   2,      -638.4,      -247.2
"Line.L11"              ,   1,        16.5,         8.3,         0.0,         0.0,         0.0,         0.0
"Line.L11"              ,   2,       -16.5,        -8.3
"Line.L12"              ,   1,        27.5,        13.8,         0.0,         0.0,         0.0,         0.0
"Line.L12"              ,   2,       -27.5,       -13.8
"Line.L13"              ,   1,       224.8,       181.1,         0.0,         0.0,         0.0,         0.0
"Line.L13"              ,   2,      -224.1,      -179.7
"Line.L14"              ,   1,        11.0,         5.5,         0.0,         0.0,         0.0,         0.0
"Line.L14"              ,   2,       -11.0,        -5.5
"Line.L15"              ,   1,         5.5,         2.8,         0.0,         0.0,         0.0,         0.0
"Line.L15"              ,   2,        -5.5,        -2.8
"Line.L16"              ,   1,        11.0,         5.5,         0.0,         0.0,         0.0,         0.0
"Line.L16"              ,   2,       -11.0,        -5.5
"Line.L17"              ,   1,         5.5,         2.8,         0.0,         0.0,         0.0,         0.0
"Line.L17"              ,   2,        -5.5,        -2.8
"Line.L18"              ,   1,        22.0,        11.0,         0.0,         0.0,         0.0,         0.0
"Line.L18"              ,   2,       -22.0,       -11.0
"Line.L19"              ,   1,        63.8,        38.6,         0.0,         0.0,         0.0,         0.0
"Line.L19"              ,   2,       -63.8,       -38.6
"Line.L20"              ,   1,        11.0,         5.5,         0.0,         0.0,         0.0,         0.0
"Line.L20"              ,   2,       -11.0,        -5.5
"Line.L21"              ,   1,        11.0,         5.5,         0.0,         0.0,         0.0,         0.0
"Line.L21"              ,   2,       -11.0,        -5.5
"Line.L22"              ,   1,        52.8,        33.1,         0.0,         0.0,         0.0,         0.0
"Line.L22"              ,   2,       -52.8,       -33.0
"Line.L23"              ,   1,        11.0,         5.5,         0.0,         0.0,         0.0,         0.0
"Line.L23"              ,   2,       -11.0,        -5.5
"Line.L24"              ,   1,        41.7,        27.5,         0.0,         0.0,         0.0,         0.0
"Line.L24"              ,   2,       -41.7,       -27.5
"Line.L25"              ,   1,        22.0,        11.0,         0.0,         0.0,         0.0,         0.0
"Line.L25"              ,   2,       -22.0,       -11.0
"Line.L26"              ,   1,        19.7,        16.5,         0.0,         0.0,         0.0,         0.0
"Line.L26"              ,   2,       -19.7,       -16.5
"Line.L27"              ,   1,        11.0,         5.5,         0.0,         0.0,         0.0,         0.0
"Line.L27"              ,   2,       -11.0,        -5.5
"Line.L28"              ,   1,        11.0,         5.5,         0.0,         0.0,         0.0,         0.0
"Line.L28"              ,   2,       -11.0,        -5.5
"Line.L29"              ,   1,        11.0,         5.5,         0.0,         0.0,         0.0,         0.0
"Line.L29"              ,   2,       -11.0,        -5.5
"Line.L30"              ,   1,        22.0,        11.0,         0.0,         0.0,         0.0,         0.0
"Line.L30"              ,   2,       -22.0,       -11.0
"Line.L31"              ,   1,        11.0,         5.5,         0.0,         0.0,         0.0,         0.0
"Line.L31"              ,   2,       -11.0,        -5.5
"Line.L32"              ,   1,        -0.0,        -0.0,         0.0,         0.0,         0.0,         0.0
"Line.L32"              ,   2,         0.0,         0.0
"Line.L33"              ,   1,         5.5,         2.8,         0.0,         0.0,         0.0,         0.0
"Line.L33"              ,   2,        -5.5,        -2.8
"Line.L34"              ,   1,        16.5,         8.3,         0.0,         0.0,         0.0,         0.0
"Line.L34"              ,   2,       -16.5,        -8.3
"Line.L35"              ,   1,        22.0,        11.0,         0.0,         0.0,         0.0,         0.0
"Line.L35"              ,   2,       -22.0,       -11.0
"Line.L36"              ,   1,       105.0,       113.3,         0.0,         0.0,         0.0,         0.0
"Line.L36"              ,   2,      -105.0,      -113.2
"Line.L37"              ,   1,        11.0,         5.5,         0.0,         0.0,         0.0,         0.0
"Line.L37"              ,   2,       -11.0,        -5.5
"Line.L38"              ,   1,        11.0,         5.5,         0.0,         0.0,         0.0,         0.0
"Line.L38"              ,   2,       -11.0,        -5.5
"Line.L39"              ,   1,         5.5,         2.8,         0.0,         0.0,         0.0,         0.0
"Line.L39"              ,   2,        -5.5,        -2.8
"Line.L40"              ,   1,         5.5,         2.8,         0.0,         0.0,         0.0,         0.0
"Line.L40"              ,   2,        -5.5,        -2.8
"Line.L41"              ,   1,        99.5,       110.4,         0.0,         0.0,         0.0,         0.0
"Line.L41"              ,   2,       -99.4,      -110.3
"Line.L42"              ,   1,        11.0,         5.5,         0.0,         0.0,         0.0,         0.0
"Line.L42"              ,   2,       -11.0,        -5.5
"Line.L43"              ,   1,        82.9,       102.0,         0.0,         0.0,         0.0,         0.0
"Line.L43"              ,   2,       -82.9,      -102.0
"Line.L44"              ,   1,        11.0,         5.5,         0.0,         0.0,         0.0,         0.0
"Line.L44"              ,   2,       -11.0,        -5.5
"Line.L45"              ,   1,        71.8,        96.5,         0.0,         0.0,         0.0,         0.0
"Line.L45"              ,   2,       -71.8,       -96.4
"Line.L46"              ,   1,         5.5,         2.8,         0.0,         0.0,         0.0,         0.0
"Line.L46"              ,   2,        -5.5,        -2.8
"Line.L47"              ,   1,       -12.2,        41.3,         0.0,         0.0,         0.0,         0.0
"Line.L47"              ,   2,        12.2,       -41.3
"Line.L48"              ,   1,        55.1,        34.4,         0.0,         0.0,         0.0,         0.0
"Line.L48"              ,   2,       -55.1,       -34.4
"Line.L49"              ,   1,        16.5,         8.3,         0.0,         0.0,         0.0,         0.0
"Line.L49"              ,   2,       -16.5,        -8.3
"Line.L50"              ,   1,         5.5,         2.7,         0.0,         0.0,         0.0,         0.0
"Line.L50"              ,   2,        -5.5,        -2.7
"Line.L51"              ,   1,         0.0,        -0.0,         0.0,         0.0,         0.0,         0.0
"Line.L51"              ,   2,         0.0,         0.0
"Line.L52"              ,   1,       374.5,        45.5,         0.0,         0.0,         0.0,         0.0
"Line.L52"              ,   2,      -374.2,       -44.9
"Line.L53"              ,   1,       363.2,        39.4,         0.0,         0.0,         0.0,         0.0
"Line.L53"              ,   2,      -363.0,       -39.0
"Line.L54"              ,   1,        11.0,         5.5,         0.0,         0.0,         0.0,         0.0
"Line.L54"              ,   2,       -11.0,        -5.5
"Line.L55"              ,   1,       352.0,        33.5,         0.0,         0.0,         0.0,         0.0
"Line.L55"              ,   2,      -351.6,       -32.6
"Line.L56"              ,   1,         5.5,         2.8,         0.0,         0.0,         0.0,         0.0
"Line.L56"              ,   2,        -5.5,        -2.8
"Line.L57"              ,   1,         4.3,         5.5,         0.0,         0.0,         0.0,         0.0
"Line.L57"              ,   2,        -4.3,        -5.5
"Line.L58"              ,   1,       347.2,        27.1,         0.0,         0.0,         0.0,         0.0
"Line.L58"              ,   2,      -346.3,       -25.2
"Line.L59"              ,   1,         5.5,         2.8,         0.0,         0.0,         0.0,         0.0
"Line.L59"              ,   2,        -5.5,        -2.8
"Line.L60"              ,   1,         0.0,        -0.0,         0.0,         0.0,         0.0,         0.0
"Line.L60"              ,   2,        -0.0,         0.0
"Line.L61"              ,   1,        55.4,        57.8,         0.0,         0.0,         0.0,         0.0
"Line.L61"              ,   2,       -55.3,       -57.8
"Line.L62"              ,   1,        44.3,        52.3,         0.0,         0.0,         0.0,         0.0
"Line.L62"              ,   2,       -44.3,       -52.3
"Line.L63"              ,   1,        33.2,        46.8,         0.0,         0.0,         0.0,         0.0
"Line.L63"              ,   2,       -33.2,       -46.8
"Line.L64"              ,   1,        12.6,        37.1,         0.0,         0.0,         0.0,         0.0
"Line.L64"              ,   2,       -12.5,       -37.1
"Line.L65"              ,   1,        20.7,         9.6,         0.0,         0.0,         0.0,         0.0
"Line.L65"              ,   2,       -20.6,        -9.6
"Line.L66"              ,   1,        33.1,        16.5,         0.0,         0.0,         0.0,         0.0
"Line.L66"              ,   2,       -33.1,       -16.5
"Line.L67"              ,   1,       144.0,      -113.4,         0.0,         0.0,         0.0,         0.0
"Line.L67"              ,   2,      -143.9,       113.6
"Line.L68"              ,   1,       108.0,        60.8,         0.0,         0.0,         0.0,         0.0
"Line.L68"              ,   2,      -108.0,       -60.7
"Line.L69"              ,   1,        27.5,        13.8,         0.0,         0.0,         0.0,         0.0
"Line.L69"              ,   2,       -27.5,       -13.8
"Line.L70"              ,   1,        16.5,         8.3,         0.0,         0.0,         0.0,         0.0
"Line.L70"              ,   2,       -16.5,        -8.3
"Line.L71"              ,   1,        11.0,         5.5,         0.0,         0.0,         0.0,         0.0
"Line.L71"              ,   2,       -11.0,        -5.5
"Line.L72"              ,   1,        33.1,        16.5,         0.0,         0.0,         0.0,         0.0
"Line.L72"              ,   2,       -33.0,       -16.5
"Line.L73"              ,   1,       110.9,      -130.1,         0.0,         0.0,         0.0,         0.0
"Line.L73"              ,   2,      -110.8,       130.2
"Line.L74"              ,   1,        22.0,        11.0,         0.0,         0.0,         0.0,         0.0
"Line.L74"              ,   2,       -22.0,       -11.0
"Line.L75"              ,   1,        11.0,         5.5,         0.0,         0.0,         0.0,         0.0
"Line.L75"              ,   2,       -11.0,        -5.5
"Line.L76"              ,   1,        66.7,      -165.7,         0.0,         0.0,         0.0,         0.0
"Line.L76"              ,   2,       -66.6,       166.0
"Line.L77"              ,   1,        58.3,       -14.1,         0.0,         0.0,         0.0,         0.0
"Line.L77"              ,   2,       -58.3,        14.2
"Line.L78"              ,   1,        55.6,      -171.5,         0.0,         0.0,         0.0,         0.0
"Line.L78"              ,   2,       -55.5,       171.5
"Line.L79"              ,   1,        11.0,         5.5,         0.0,         0.0,         0.0,         0.0
"Line.L79"              ,   2,       -11.0,        -5.5
"Line.L80"              ,   1,        44.5,      -177.0,         0.0,         0.0,         0.0,         0.0
"Line.L80"              ,   2,       -44.3,       177.4
"Line.L81"              ,   1,        33.3,      -182.9,         0.0,         0.0,         0.0,         0.0
"Line.L81"              ,   2,       -33.3,       183.0
"Line.L82"              ,   1,        16.7,      -191.3,         0.0,         0.0,         0.0,         0.0
"Line.L82"              ,   2,       -16.6,       191.5
"Line.L83"              ,   1,        16.5,         8.3,         0.0,         0.0,         0.0,         0.0
"Line.L83"              ,   2,       -16.5,        -8.3
"Line.L84"              ,   1,         5.6,      -197.0,         0.0,         0.0,         0.0,         0.0
"Line.L84"              ,   2,        -5.5,       197.2
"Line.L85"              ,   1,        11.0,         5.5,         0.0,         0.0,         0.0,         0.0
"Line.L85"              ,   2,       -11.0,        -5.5
"Line.L86"              ,   1,        52.8,       -16.9,         0.0,         0.0,         0.0,         0.0
"Line.L86"              ,   2,       -52.8,        16.9
"Line.L87"              ,   1,        11.0,       -11.2,         0.0,         0.0,         0.0,         0.0
"Line.L87"              ,   2,       -11.0,        11.2
"Line.L88"              ,   1,        44.1,       -11.3,         0.0,         0.0,         0.0,         0.0
"Line.L88"              ,   2,       -44.1,        11.3
"Line.L89"              ,   1,        11.0,       -11.2,         0.0,         0.0,         0.0,         0.0
"Line.L89"              ,   2,       -11.0,        11.2
"Line.L90"              ,   1,        33.0,        -0.1,         0.0,         0.0,         0.0,         0.0
"Line.L90"              ,   2,       -33.0,         0.1
"Line.L91"              ,   1,        11.0,       -11.2,         0.0,         0.0,         0.0,         0.0
"Line.L91"              ,   2,       -11.0,        11.2
"Line.L92"              ,   1,        22.0,        11.0,         0.0,         0.0,         0.0,         0.0
"Line.L92"              ,   2,       -22.0,       -11.0
"Line.L93"              ,   1,        11.0,         5.5,         0.0,         0.0,         0.0,         0.0
"Line.L93"              ,   2,       -11.0,        -5.5
"Line.L94"              ,   1,        11.0,         5.5,         0.0,         0.0,         0.0,         0.0
"Line.L94"              ,   2,       -11.0,        -5.5
"Line.L95"              ,   1,         5.5,         2.8,         0.0,         0.0,         0.0,         0.0
"Line.L95"              ,   2,        -5.5,        -2.8
"Line.L96"              ,   1,        19.7,        16.5,         0.0,         0.0,         0.0,         0.0
"Line.L96"              ,   2,       -19.7,       -16.5
"Line.L97"              ,   1,         8.7,        11.0,         0.0,         0.0,         0.0,         0.0
"Line.L97"              ,   2,        -8.7,       -11.0
"Line.L98"              ,   1,        -2.3,         5.5,         0.0,         0.0,         0.0,         0.0
"Line.L98"              ,   2,         2.3,        -5.5
"Line.L99"              ,   1,         0.0,        -0.0,         0.0,         0.0,         0.0,         0.0
"Line.L99"              ,   2,         0.0,         0.0
"Line.L118"             ,   1,        88.2,        44.2,         0.0,         0.0,         0.0,         0.0
"Line.L118"             ,   2,       -88.2,       -44.2
"Line.L100"             ,   1,        27.6,        13.8,         0.0,         0.0,         0.0,         0.0
"Line.L100"             ,   2,       -27.5,       -13.8
"Line.L101"             ,   1,        60.7,        30.4,         0.0,         0.0,         0.0,         0.0
"Line.L101"             ,   2,       -60.6,       -30.4
"Line.L102"             ,   1,        22.0,        11.0,         0.0,         0.0,         0.0,         0.0
"Line.L102"             ,   2,       -22.0,       -11.0
"Line.L103"             ,   1,        11.0,         5.5,         0.0,         0.0,         0.0,         0.0
"Line.L103"             ,   2,       -11.0,        -5.5
"Line.L104"             ,   1,        22.0,        11.0,         0.0,         0.0,         0.0,         0.0
"Line.L104"             ,   2,       -22.0,       -11.0
"Line.L105"             ,   1,        38.6,        19.3,         0.0,         0.0,         0.0,         0.0
"Line.L105"             ,   2,       -38.6,       -19.3
"Line.L106"             ,   1,        11.0,         5.5,         0.0,         0.0,         0.0,         0.0
"Line.L106"             ,   2,       -11.0,        -5.5
"Line.L107"             ,   1,        38.6,        19.3,         0.0,         0.0,         0.0,         0.0
"Line.L107"             ,   2,       -38.6,       -19.3
"Line.L108"             ,   1,         0.0,        -0.0,         0.0,         0.0,         0.0,         0.0
"Line.L108"             ,   2,         0.0,        -0.0
"Line.L109"             ,   1,        27.6,        13.8,         0.0,         0.0,         0.0,         0.0
"Line.L109"             ,   2,       -27.5,       -13.8
"Line.L110"             ,   1,         5.5,         2.8,         0.0,         0.0,         0.0,         0.0
"Line.L110"             ,   2,        -5.5,        -2.8
"Line.L111"             ,   1,        22.0,        11.0,         0.0,         0.0,         0.0,         0.0
"Line.L111"             ,   2,       -22.0,       -11.0
"Line.L112"             ,   1,        16.5,         8.3,         0.0,         0.0,         0.0,         0.0
"Line.L112"             ,   2,       -16.5,        -8.3
"Line.L113"             ,   1,         5.5,         2.8,         0.0,         0.0,         0.0,         0.0
"Line.L113"             ,   2,        -5.5,        -2.8
"Line.L114"             ,   1,       138.2,       130.1,         0.0,         0.0,         0.0,         0.0
"Line.L114"             ,   2,      -138.1,      -129.8
"Line.L116"             ,   1,       386.1,        52.3,         0.0,         0.0,         0.0,         0.0
"Line.L116"             ,   2,      -385.5,       -51.0
"Line.L117"             ,   1,       285.4,       -35.3,         0.0,         0.0,         0.0,         0.0
"Line.L117"             ,   2,      -285.1,        36.0
"Line.SW1"              ,   1,       714.2,       301.7,         0.0,         0.0,         0.0,         0.0
"Line.SW1"              ,   2,      -714.2,      -301.7
"Line.SW2"              ,   1,       386.1,        52.3,         0.0,         0.0,         0.0,         0.0
"Line.SW2"              ,   2,      -386.1,       -52.3
"Line.SW3"              ,   1,       138.2,       130.1,         0.0,         0.0,         0.0,         0.0
"Line.SW3"              ,   2,      -138.2,      -130.1
"Line.SW4"              ,   1,       285.4,       -35.3,         0.0,         0.0,         0.0,         0.0
"Line.SW4"              ,   2,      -285.4,        35.3
"Line.SW5"              ,   1,        88.2,        44.2,         0.0,         0.0,         0.0,         0.0
"Line.SW5"              ,   2,       -88.2,       -44.2
"Line.XFM1"             ,   1,         0.0,         0.0,         0.0,         0.0,         0.0,         0.0
"Line.XFM1"             ,   2,         0.0,         0.0
"Transformer.REG1A"     ,   1,       714.2,       301.7,         0.0,         0.0,         0.0,         0.0
"Transformer.REG1A"     ,   2,      -714.2,      -301.7
"Transformer.REG2A"     ,   1,        16.5,         8.3,         0.0,         0.0,         0.0,         0.0
"Transformer.REG2A"     ,   2,       -16.5,        -8.3
"Transformer.REG3A"     ,   1,        22.0,        11.0,         0.0,         0.0,         0.0,         0.0
"Transformer.REG3A"     ,   2,       -22.0,       -11.0
"Transformer.REG4A"     ,   1,       285.4,       -35.3,         0.0,         0.0,         0.0,         0.0
"Transformer.REG4A"     ,   2,      -285.4,        35.3
"Load.S1"               ,   1,        11.0,         5.5
"Load.S2"               ,   1,         5.5,         2.8
"Load.S4"               ,   1,        11.0,         5.5
"Load.S5"               ,   1,         5.5,         2.8
"Load.S6"               ,   1,        11.0,         5.5
"Load.S7"               ,   1,         5.5,         2.8
"Load.S9"               ,   1,        11.0,         5.5
"Load.S10"              ,   1,         5.5,         2.8
"Load.S11"              ,   1,        11.0,         5.5
"Load.S12"              ,   1,         5.5,         2.8
"Load.S16"              ,   1,        11.0,         5.5
"Load.S17"              ,   1,         5.5,         2.8
"Load.S19"              ,   1,        11.0,         5.5
"Load.S20"              ,   1,        11.0,         5.5
"Load.S22"              ,   1,        11.0,         5.5
"Load.S24"              ,   1,        11.0,         5.5
"Load.S28"              ,   1,        11.0,         5.5
"Load.S29"              ,   1,        11.0,         5.5
"Load.S30"              ,   1,        11.0,         5.5
"Load.S31"              ,   1,         5.5,         2.8
"Load.S32"              ,   1,         5.5,         2.8
"Load.S33"              ,   1,        11.0,         5.5
"Load.S34"              ,   1,        11.0,         5.5
"Load.S35"              ,   1,        11.0,         5.5
"Load.S37"              ,   1,        11.0,         5.5
"Load.S38"              ,   1,         5.5,         2.8
"Load.S39"              ,   1,         5.5,         2.8
"Load.S41"              ,   1,         5.5,         2.8
"Load.S42"              ,   1,         5.5,         2.8
"Load.S43"              ,   1,        11.0,         5.5
"Load.S45"              ,   1,         5.5,         2.8
"Load.S46"              ,   1,         5.5,         2.8
"Load.S47"              ,   1,        28.9,        20.6
"Load.S48"              ,   1,        57.8,        41.3
"Load.S49"              ,   1,        38.5,        26.2
"Load.S50"              ,   1,        11.0,         5.5
"Load.S51"              ,   1,         5.5,         2.8
"Load.S52"              ,   1,        11.0,         5.5
"Load.S53"              ,   1,        11.0,         5.5
"Load.S55"              ,   1,         5.5,         2.8
"Load.S56"              ,   1,         5.5,         2.8
"Load.S58"              ,   1,         5.5,         2.8
"Load.S59"              ,   1,         5.5,         2.8
"Load.S60"              ,   1,         5.5,         2.8
"Load.S62"              ,   1,        11.0,         5.5
"Load.S63"              ,   1,        11.0,         5.5
"Load.S64"              ,   1,        20.6,         9.6
"Load.S65"              ,   1,        38.5,        27.5
"Load.S66"              ,   1,        20.6,         9.6
"Load.S68"              ,   1,         5.5,         2.8
"Load.S69"              ,   1,        11.0,         5.5
"Load.S70"              ,   1,         5.5,         2.8
"Load.S71"              ,   1,        11.0,         5.5
"Load.S73"              ,   1,        11.0,         5.5
"Load.S74"              ,   1,        11.0,         5.5
"Load.S75"              ,   1,        11.0,         5.5
"Load.S76"              ,   1,        67.5,        49.6
"Load.S77"              ,   1,        11.0,         5.5
"Load.S79"              ,   1,        11.0,         5.5
"Load.S80"              ,   1,        11.0,         5.5
"Load.S82"              ,   1,        11.0,         5.5
"Load.S83"              ,   1,         5.5,         2.8
"Load.S84"              ,   1,         5.5,         2.8
"Load.S85"              ,   1,        11.0,         5.5
"Load.S86"              ,   1,         5.5,         2.8
"Load.S87"              ,   1,        11.0,         5.5
"Load.S88"              ,   1,        11.0,         5.5
"Load.S90"              ,   1,        11.0,         5.5
"Load.S92"              ,   1,        11.0,         5.5
"Load.S94"              ,   1,        11.0,         5.5
"Load.S95"              ,   1,         5.5,         2.8
"Load.S96"              ,   1,         5.5,         2.8
"Load.S98"              ,   1,        11.0,         5.5
"Load.S99"              ,   1,        11.0,         5.5
"Load.S100"             ,   1,        11.0,         5.5
"Load.S102"             ,   1,         5.5,         2.8
"Load.S103"             ,   1,        11.0,         5.5
"Load.S104"             ,   1,        11.0,         5.5
"Load.S106"             ,   1,        11.0,         5.5
"Load.S107"             ,   1,        11.0,         5.5
"Load.S109"             ,   1,        11.0,         5.5
"Load.S111"             ,   1,         5.5,         2.8
"Load.S112"             ,   1,         5.5,         2.8
"Load.S113"             ,   1,        11.0,         5.5
"Load.S114"             ,   1,         5.5,         2.8
"Generator.C83"         ,   1,        -0.0,      -200.0
"Generator.C88"         ,   1,        -0.0,       -16.7
"Generator.C90"         ,   1,        -0.0,       -16.7
"Generator.C92"         ,   1,        -0.0,       -16.7
"PVSystem.9"            ,   1,       -13.3,         0.0
"PVSystem.28"           ,   1,       -13.3,         0.0
"PVSystem.48"           ,   1,       -70.0,         0.0
"PVSystem.58"           ,   1,        -6.7,         0.0
"PVSystem.65"           ,   1,       -46.7,         0.0
"PVSystem.76"           ,   1,       -81.7,         0.0
"PVSystem.87"           ,   1,       -13.3,         0.0
"PVSystem.100"          ,   1,       -13.3,         0.0
